---- qbsp / ericw-tools v0.18.1 ----
Input file: test.map
Output file: test.bsp

---- LoadMapFile ----
*** WARNING 06: No info_player_deathmatch entities in level
           36 faces
            6 brushes
            2 entities
            2 unique texnames
           16 texinfo

Opened WAD: ../wads/prototype_1_2.wad
Processing hull 0...
---- Brush_LoadEntity ----
            6 brushes
           12 planes
---- CSGFaces ----
           36 brushfaces
           36 csgfaces
           36 mergedfaces
---- SolidBSP ----
           24 split nodes
            6 solid leafs
           19 empty leafs
            0 water leafs
            0 detail leafs
            0 detail illusionary leafs
            0 detail fence leafs
            0 illusionary visblocker leafs
           96 leaffaces
           96 nodefaces
---- Portalize ----
           19 vis leafs
           19 vis clusters
           40 vis portals
---- FillOutside ----
           18 outleafs
---- MergeAll ----
            6 mergefaces
---- SolidBSP ----
            6 split nodes
            6 solid leafs
            1 empty leafs
            0 water leafs
            0 detail leafs
            0 detail illusionary leafs
            0 detail fence leafs
            0 illusionary visblocker leafs
           24 leaffaces
           24 nodefaces
---- Portalize ----
            1 vis leafs
            1 vis clusters
            0 vis portals
---- Tjunc ----
           24 world edges
           76 edge points
            8 edges added by tjunctions
            0 faces added by tjunctions
---- MakeFaceEdges ----
---- GrowRegions ----
Processing hull 1...
*** WARNING 19: No entities in empty space -- no filling performed (hull 1)
Processing hull 2...
*** WARNING 19: No entities in empty space -- no filling performed (hull 2)
---- WriteBSPFile ----
Wrote test.bsp
           38 planes              760
           30 vertexes            360
            6 nodes               144
            4 texinfo             160
           24 faces               480
          112 clipnodes           896
            2 leafs                56
           24 marksurfaces         48
          104 surfedges           416
           53 edges               212
            2 textures          43612
              lightdata             0
              visdata               0
              entdata             123

0.048 seconds elapsed
Peak memory usage: 445352 (434.9k)
